
---------- Begin Simulation Statistics ----------
final_tick                                  224536000                       # Number of ticks from beginning of simulation (restored from checkpoints and never reset)
host_inst_rate                                 200576                       # Simulator instruction rate (inst/s)
host_mem_usage                                 678852                       # Number of bytes of host memory used
host_op_rate                                   239303                       # Simulator op (including micro ops) rate (op/s)
host_seconds                                     1.06                       # Real time elapsed on the host
host_tick_rate                              211965600                       # Simulator tick rate (ticks/s)
sim_freq                                 1000000000000                       # Frequency of simulated ticks
sim_insts                                      212449                       # Number of instructions simulated
sim_ops                                        253490                       # Number of ops (including micro ops) simulated
sim_seconds                                  0.000225                       # Number of seconds simulated
sim_ticks                                   224536000                       # Number of ticks simulated
system.cpu.branchPred.BTBCorrect                    0                       # Number of correct BTB predictions (this stat may not work properly.
system.cpu.branchPred.BTBHitPct             48.143883                       # BTB Hit Percentage
system.cpu.branchPred.BTBHits                   19233                       # Number of BTB hits
system.cpu.branchPred.BTBLookups                39949                       # Number of BTB lookups
system.cpu.branchPred.RASInCorrect                  7                       # Number of incorrect RAS predictions.
system.cpu.branchPred.condIncorrect              2403                       # Number of conditional branches incorrect
system.cpu.branchPred.condPredicted             32965                       # Number of conditional branches predicted
system.cpu.branchPred.indirectHits               2301                       # Number of indirect target hits.
system.cpu.branchPred.indirectLookups            3718                       # Number of indirect predictor lookups.
system.cpu.branchPred.indirectMisses             1417                       # Number of indirect misses.
system.cpu.branchPred.lookups                   50112                       # Number of BP lookups
system.cpu.branchPred.usedRAS                    5374                       # Number of times the RAS was used to get a target.
system.cpu.branchPredindirectMispredicted          324                       # Number of mispredicted indirect branches.
system.cpu.committedInsts                      212449                       # Number of instructions committed
system.cpu.committedOps                        253490                       # Number of ops (including micro ops) committed
system.cpu.cpi                               2.113787                       # CPI: cycles per instruction
system.cpu.discardedOps                          6517                       # Number of ops (including micro ops) which were discarded before commit
system.cpu.dtb.accesses                             0                       # DTB accesses
system.cpu.dtb.align_faults                         0                       # Number of TLB faults due to alignment restrictions
system.cpu.dtb.domain_faults                        0                       # Number of TLB faults due to domain restrictions
system.cpu.dtb.flush_entries                        0                       # Number of entries that have been flushed from TLB
system.cpu.dtb.flush_tlb                            0                       # Number of times complete TLB was flushed
system.cpu.dtb.flush_tlb_asid                       0                       # Number of times TLB was flushed by ASID
system.cpu.dtb.flush_tlb_mva                        0                       # Number of times TLB was flushed by MVA
system.cpu.dtb.flush_tlb_mva_asid                   0                       # Number of times TLB was flushed by MVA & ASID
system.cpu.dtb.hits                                 0                       # DTB hits
system.cpu.dtb.inst_accesses                        0                       # ITB inst accesses
system.cpu.dtb.inst_hits                            0                       # ITB inst hits
system.cpu.dtb.inst_misses                          0                       # ITB inst misses
system.cpu.dtb.misses                               0                       # DTB misses
system.cpu.dtb.perms_faults                         0                       # Number of TLB faults due to permissions restrictions
system.cpu.dtb.prefetch_faults                      0                       # Number of TLB faults due to prefetch
system.cpu.dtb.read_accesses                        0                       # DTB read accesses
system.cpu.dtb.read_hits                            0                       # DTB read hits
system.cpu.dtb.read_misses                          0                       # DTB read misses
system.cpu.dtb.stage2_mmu.stage2_tlb.accesses            0                       # DTB accesses
system.cpu.dtb.stage2_mmu.stage2_tlb.align_faults            0                       # Number of TLB faults due to alignment restrictions
system.cpu.dtb.stage2_mmu.stage2_tlb.domain_faults            0                       # Number of TLB faults due to domain restrictions
system.cpu.dtb.stage2_mmu.stage2_tlb.flush_entries            0                       # Number of entries that have been flushed from TLB
system.cpu.dtb.stage2_mmu.stage2_tlb.flush_tlb            0                       # Number of times complete TLB was flushed
system.cpu.dtb.stage2_mmu.stage2_tlb.flush_tlb_asid            0                       # Number of times TLB was flushed by ASID
system.cpu.dtb.stage2_mmu.stage2_tlb.flush_tlb_mva            0                       # Number of times TLB was flushed by MVA
system.cpu.dtb.stage2_mmu.stage2_tlb.flush_tlb_mva_asid            0                       # Number of times TLB was flushed by MVA & ASID
system.cpu.dtb.stage2_mmu.stage2_tlb.hits            0                       # DTB hits
system.cpu.dtb.stage2_mmu.stage2_tlb.inst_accesses            0                       # ITB inst accesses
system.cpu.dtb.stage2_mmu.stage2_tlb.inst_hits            0                       # ITB inst hits
system.cpu.dtb.stage2_mmu.stage2_tlb.inst_misses            0                       # ITB inst misses
system.cpu.dtb.stage2_mmu.stage2_tlb.misses            0                       # DTB misses
system.cpu.dtb.stage2_mmu.stage2_tlb.perms_faults            0                       # Number of TLB faults due to permissions restrictions
system.cpu.dtb.stage2_mmu.stage2_tlb.prefetch_faults            0                       # Number of TLB faults due to prefetch
system.cpu.dtb.stage2_mmu.stage2_tlb.read_accesses            0                       # DTB read accesses
system.cpu.dtb.stage2_mmu.stage2_tlb.read_hits            0                       # DTB read hits
system.cpu.dtb.stage2_mmu.stage2_tlb.read_misses            0                       # DTB read misses
system.cpu.dtb.stage2_mmu.stage2_tlb.walker.walkRequestOrigin_Requested::Data            0                       # Table walker requests started/completed, data/inst
system.cpu.dtb.stage2_mmu.stage2_tlb.walker.walkRequestOrigin_Requested::Inst            0                       # Table walker requests started/completed, data/inst
system.cpu.dtb.stage2_mmu.stage2_tlb.walker.walkRequestOrigin_Requested::total            0                       # Table walker requests started/completed, data/inst
system.cpu.dtb.stage2_mmu.stage2_tlb.walker.walkRequestOrigin_Completed::Data            0                       # Table walker requests started/completed, data/inst
system.cpu.dtb.stage2_mmu.stage2_tlb.walker.walkRequestOrigin_Completed::Inst            0                       # Table walker requests started/completed, data/inst
system.cpu.dtb.stage2_mmu.stage2_tlb.walker.walkRequestOrigin_Completed::total            0                       # Table walker requests started/completed, data/inst
system.cpu.dtb.stage2_mmu.stage2_tlb.walker.walkRequestOrigin::total            0                       # Table walker requests started/completed, data/inst
system.cpu.dtb.stage2_mmu.stage2_tlb.walker.walks            0                       # Table walker walks requested
system.cpu.dtb.stage2_mmu.stage2_tlb.write_accesses            0                       # DTB write accesses
system.cpu.dtb.stage2_mmu.stage2_tlb.write_hits            0                       # DTB write hits
system.cpu.dtb.stage2_mmu.stage2_tlb.write_misses            0                       # DTB write misses
system.cpu.dtb.walker.walkRequestOrigin_Requested::Data            0                       # Table walker requests started/completed, data/inst
system.cpu.dtb.walker.walkRequestOrigin_Requested::Inst            0                       # Table walker requests started/completed, data/inst
system.cpu.dtb.walker.walkRequestOrigin_Requested::total            0                       # Table walker requests started/completed, data/inst
system.cpu.dtb.walker.walkRequestOrigin_Completed::Data            0                       # Table walker requests started/completed, data/inst
system.cpu.dtb.walker.walkRequestOrigin_Completed::Inst            0                       # Table walker requests started/completed, data/inst
system.cpu.dtb.walker.walkRequestOrigin_Completed::total            0                       # Table walker requests started/completed, data/inst
system.cpu.dtb.walker.walkRequestOrigin::total            0                       # Table walker requests started/completed, data/inst
system.cpu.dtb.walker.walks                         0                       # Table walker walks requested
system.cpu.dtb.write_accesses                       0                       # DTB write accesses
system.cpu.dtb.write_hits                           0                       # DTB write hits
system.cpu.dtb.write_misses                         0                       # DTB write misses
system.cpu.fetch2.amo_instructions                  0                       # Number of memory atomic instructions successfully decoded
system.cpu.fetch2.fp_instructions                   0                       # Number of floating point instructions successfully decoded
system.cpu.fetch2.int_instructions             137145                       # Number of integer instructions successfully decoded
system.cpu.fetch2.load_instructions             29999                       # Number of memory load instructions successfully decoded
system.cpu.fetch2.store_instructions            15637                       # Number of memory store instructions successfully decoded
system.cpu.fetch2.vec_instructions                  0                       # Number of SIMD instructions successfully decoded
system.cpu.idleCycles                          150699                       # Total number of cycles that the object has spent stopped
system.cpu.ipc                               0.473084                       # IPC: instructions per cycle
system.cpu.itb.accesses                             0                       # DTB accesses
system.cpu.itb.align_faults                         0                       # Number of TLB faults due to alignment restrictions
system.cpu.itb.domain_faults                        0                       # Number of TLB faults due to domain restrictions
system.cpu.itb.flush_entries                        0                       # Number of entries that have been flushed from TLB
system.cpu.itb.flush_tlb                            0                       # Number of times complete TLB was flushed
system.cpu.itb.flush_tlb_asid                       0                       # Number of times TLB was flushed by ASID
system.cpu.itb.flush_tlb_mva                        0                       # Number of times TLB was flushed by MVA
system.cpu.itb.flush_tlb_mva_asid                   0                       # Number of times TLB was flushed by MVA & ASID
system.cpu.itb.hits                                 0                       # DTB hits
system.cpu.itb.inst_accesses                        0                       # ITB inst accesses
system.cpu.itb.inst_hits                            0                       # ITB inst hits
system.cpu.itb.inst_misses                          0                       # ITB inst misses
system.cpu.itb.misses                               0                       # DTB misses
system.cpu.itb.perms_faults                         0                       # Number of TLB faults due to permissions restrictions
system.cpu.itb.prefetch_faults                      0                       # Number of TLB faults due to prefetch
system.cpu.itb.read_accesses                        0                       # DTB read accesses
system.cpu.itb.read_hits                            0                       # DTB read hits
system.cpu.itb.read_misses                          0                       # DTB read misses
system.cpu.itb.stage2_mmu.stage2_tlb.accesses            0                       # DTB accesses
system.cpu.itb.stage2_mmu.stage2_tlb.align_faults            0                       # Number of TLB faults due to alignment restrictions
system.cpu.itb.stage2_mmu.stage2_tlb.domain_faults            0                       # Number of TLB faults due to domain restrictions
system.cpu.itb.stage2_mmu.stage2_tlb.flush_entries            0                       # Number of entries that have been flushed from TLB
system.cpu.itb.stage2_mmu.stage2_tlb.flush_tlb            0                       # Number of times complete TLB was flushed
system.cpu.itb.stage2_mmu.stage2_tlb.flush_tlb_asid            0                       # Number of times TLB was flushed by ASID
system.cpu.itb.stage2_mmu.stage2_tlb.flush_tlb_mva            0                       # Number of times TLB was flushed by MVA
system.cpu.itb.stage2_mmu.stage2_tlb.flush_tlb_mva_asid            0                       # Number of times TLB was flushed by MVA & ASID
system.cpu.itb.stage2_mmu.stage2_tlb.hits            0                       # DTB hits
system.cpu.itb.stage2_mmu.stage2_tlb.inst_accesses            0                       # ITB inst accesses
system.cpu.itb.stage2_mmu.stage2_tlb.inst_hits            0                       # ITB inst hits
system.cpu.itb.stage2_mmu.stage2_tlb.inst_misses            0                       # ITB inst misses
system.cpu.itb.stage2_mmu.stage2_tlb.misses            0                       # DTB misses
system.cpu.itb.stage2_mmu.stage2_tlb.perms_faults            0                       # Number of TLB faults due to permissions restrictions
system.cpu.itb.stage2_mmu.stage2_tlb.prefetch_faults            0                       # Number of TLB faults due to prefetch
system.cpu.itb.stage2_mmu.stage2_tlb.read_accesses            0                       # DTB read accesses
system.cpu.itb.stage2_mmu.stage2_tlb.read_hits            0                       # DTB read hits
system.cpu.itb.stage2_mmu.stage2_tlb.read_misses            0                       # DTB read misses
system.cpu.itb.stage2_mmu.stage2_tlb.walker.walkRequestOrigin_Requested::Data            0                       # Table walker requests started/completed, data/inst
system.cpu.itb.stage2_mmu.stage2_tlb.walker.walkRequestOrigin_Requested::Inst            0                       # Table walker requests started/completed, data/inst
system.cpu.itb.stage2_mmu.stage2_tlb.walker.walkRequestOrigin_Requested::total            0                       # Table walker requests started/completed, data/inst
system.cpu.itb.stage2_mmu.stage2_tlb.walker.walkRequestOrigin_Completed::Data            0                       # Table walker requests started/completed, data/inst
system.cpu.itb.stage2_mmu.stage2_tlb.walker.walkRequestOrigin_Completed::Inst            0                       # Table walker requests started/completed, data/inst
system.cpu.itb.stage2_mmu.stage2_tlb.walker.walkRequestOrigin_Completed::total            0                       # Table walker requests started/completed, data/inst
system.cpu.itb.stage2_mmu.stage2_tlb.walker.walkRequestOrigin::total            0                       # Table walker requests started/completed, data/inst
system.cpu.itb.stage2_mmu.stage2_tlb.walker.walks            0                       # Table walker walks requested
system.cpu.itb.stage2_mmu.stage2_tlb.write_accesses            0                       # DTB write accesses
system.cpu.itb.stage2_mmu.stage2_tlb.write_hits            0                       # DTB write hits
system.cpu.itb.stage2_mmu.stage2_tlb.write_misses            0                       # DTB write misses
system.cpu.itb.walker.walkRequestOrigin_Requested::Data            0                       # Table walker requests started/completed, data/inst
system.cpu.itb.walker.walkRequestOrigin_Requested::Inst            0                       # Table walker requests started/completed, data/inst
system.cpu.itb.walker.walkRequestOrigin_Requested::total            0                       # Table walker requests started/completed, data/inst
system.cpu.itb.walker.walkRequestOrigin_Completed::Data            0                       # Table walker requests started/completed, data/inst
system.cpu.itb.walker.walkRequestOrigin_Completed::Inst            0                       # Table walker requests started/completed, data/inst
system.cpu.itb.walker.walkRequestOrigin_Completed::total            0                       # Table walker requests started/completed, data/inst
system.cpu.itb.walker.walkRequestOrigin::total            0                       # Table walker requests started/completed, data/inst
system.cpu.itb.walker.walks                         0                       # Table walker walks requested
system.cpu.itb.write_accesses                       0                       # DTB write accesses
system.cpu.itb.write_hits                           0                       # DTB write hits
system.cpu.itb.write_misses                         0                       # DTB write misses
system.cpu.numCycles                           449072                       # number of cpu cycles simulated
system.cpu.numFetchSuspends                         0                       # Number of times Execute suspended instruction fetching
system.cpu.numWorkItemsCompleted                    0                       # number of work items this cpu completed
system.cpu.numWorkItemsStarted                      0                       # number of work items this cpu started
system.cpu.op_class_0::No_OpClass                   0      0.00%      0.00% # Class of committed instruction
system.cpu.op_class_0::IntAlu                  173119     68.29%     68.29% # Class of committed instruction
system.cpu.op_class_0::IntMult                   1617      0.64%     68.93% # Class of committed instruction
system.cpu.op_class_0::IntDiv                       0      0.00%     68.93% # Class of committed instruction
system.cpu.op_class_0::FloatAdd                     0      0.00%     68.93% # Class of committed instruction
system.cpu.op_class_0::FloatCmp                     0      0.00%     68.93% # Class of committed instruction
system.cpu.op_class_0::FloatCvt                     0      0.00%     68.93% # Class of committed instruction
system.cpu.op_class_0::FloatMult                    0      0.00%     68.93% # Class of committed instruction
system.cpu.op_class_0::FloatMultAcc                 0      0.00%     68.93% # Class of committed instruction
system.cpu.op_class_0::FloatDiv                     0      0.00%     68.93% # Class of committed instruction
system.cpu.op_class_0::FloatMisc                    0      0.00%     68.93% # Class of committed instruction
system.cpu.op_class_0::FloatSqrt                    0      0.00%     68.93% # Class of committed instruction
system.cpu.op_class_0::SimdAdd                      0      0.00%     68.93% # Class of committed instruction
system.cpu.op_class_0::SimdAddAcc                   0      0.00%     68.93% # Class of committed instruction
system.cpu.op_class_0::SimdAlu                      0      0.00%     68.93% # Class of committed instruction
system.cpu.op_class_0::SimdCmp                      0      0.00%     68.93% # Class of committed instruction
system.cpu.op_class_0::SimdCvt                      0      0.00%     68.93% # Class of committed instruction
system.cpu.op_class_0::SimdMisc                     0      0.00%     68.93% # Class of committed instruction
system.cpu.op_class_0::SimdMult                     0      0.00%     68.93% # Class of committed instruction
system.cpu.op_class_0::SimdMultAcc                  0      0.00%     68.93% # Class of committed instruction
system.cpu.op_class_0::SimdShift                    0      0.00%     68.93% # Class of committed instruction
system.cpu.op_class_0::SimdShiftAcc                 0      0.00%     68.93% # Class of committed instruction
system.cpu.op_class_0::SimdDiv                      0      0.00%     68.93% # Class of committed instruction
system.cpu.op_class_0::SimdSqrt                     0      0.00%     68.93% # Class of committed instruction
system.cpu.op_class_0::SimdFloatAdd                 0      0.00%     68.93% # Class of committed instruction
system.cpu.op_class_0::SimdFloatAlu                 0      0.00%     68.93% # Class of committed instruction
system.cpu.op_class_0::SimdFloatCmp                 0      0.00%     68.93% # Class of committed instruction
system.cpu.op_class_0::SimdFloatCvt                 0      0.00%     68.93% # Class of committed instruction
system.cpu.op_class_0::SimdFloatDiv                 0      0.00%     68.93% # Class of committed instruction
system.cpu.op_class_0::SimdFloatMisc               21      0.01%     68.94% # Class of committed instruction
system.cpu.op_class_0::SimdFloatMult                0      0.00%     68.94% # Class of committed instruction
system.cpu.op_class_0::SimdFloatMultAcc             0      0.00%     68.94% # Class of committed instruction
system.cpu.op_class_0::SimdFloatSqrt                0      0.00%     68.94% # Class of committed instruction
system.cpu.op_class_0::SimdReduceAdd                0      0.00%     68.94% # Class of committed instruction
system.cpu.op_class_0::SimdReduceAlu                0      0.00%     68.94% # Class of committed instruction
system.cpu.op_class_0::SimdReduceCmp                0      0.00%     68.94% # Class of committed instruction
system.cpu.op_class_0::SimdFloatReduceAdd            0      0.00%     68.94% # Class of committed instruction
system.cpu.op_class_0::SimdFloatReduceCmp            0      0.00%     68.94% # Class of committed instruction
system.cpu.op_class_0::SimdAes                      0      0.00%     68.94% # Class of committed instruction
system.cpu.op_class_0::SimdAesMix                   0      0.00%     68.94% # Class of committed instruction
system.cpu.op_class_0::SimdSha1Hash                 0      0.00%     68.94% # Class of committed instruction
system.cpu.op_class_0::SimdSha1Hash2                0      0.00%     68.94% # Class of committed instruction
system.cpu.op_class_0::SimdSha256Hash               0      0.00%     68.94% # Class of committed instruction
system.cpu.op_class_0::SimdSha256Hash2              0      0.00%     68.94% # Class of committed instruction
system.cpu.op_class_0::SimdShaSigma2                0      0.00%     68.94% # Class of committed instruction
system.cpu.op_class_0::SimdShaSigma3                0      0.00%     68.94% # Class of committed instruction
system.cpu.op_class_0::SimdPredAlu                  0      0.00%     68.94% # Class of committed instruction
system.cpu.op_class_0::MemRead                  41619     16.42%     85.36% # Class of committed instruction
system.cpu.op_class_0::MemWrite                 37114     14.64%    100.00% # Class of committed instruction
system.cpu.op_class_0::FloatMemRead                 0      0.00%    100.00% # Class of committed instruction
system.cpu.op_class_0::FloatMemWrite                0      0.00%    100.00% # Class of committed instruction
system.cpu.op_class_0::IprAccess                    0      0.00%    100.00% # Class of committed instruction
system.cpu.op_class_0::InstPrefetch                 0      0.00%    100.00% # Class of committed instruction
system.cpu.op_class_0::total                   253490                       # Class of committed instruction
system.cpu.tickCycles                          298373                       # Number of cycles that the object actually ticked
system.cpu.workload.numSyscalls                   265                       # Number of system calls
system.membus.snoop_filter.hit_multi_requests            4                       # Number of requests hitting in the snoop filter with multiple (>1) holders of the requested data.
system.membus.snoop_filter.hit_multi_snoops            0                       # Number of snoops hitting in the snoop filter with multiple (>1) holders of the requested data.
system.membus.snoop_filter.hit_single_requests         2686                       # Number of requests hitting in the snoop filter with a single holder of the requested data.
system.membus.snoop_filter.hit_single_snoops            0                       # Number of snoops hitting in the snoop filter with a single holder of the requested data.
system.membus.snoop_filter.tot_requests          5831                       # Total number of requests made to the snoop filter.
system.membus.snoop_filter.tot_snoops               0                       # Total number of snoops made to the snoop filter.
system.membus.pwrStateResidencyTicks::UNDEFINED    224536000                       # Cumulative time (in ticks) in various power states
system.membus.trans_dist::ReadResp               3098                       # Transaction distribution
system.membus.trans_dist::WritebackClean         2664                       # Transaction distribution
system.membus.trans_dist::CleanEvict                1                       # Transaction distribution
system.membus.trans_dist::ReadExReq                68                       # Transaction distribution
system.membus.trans_dist::ReadExResp               68                       # Transaction distribution
system.membus.trans_dist::ReadCleanReq           2985                       # Transaction distribution
system.membus.trans_dist::ReadSharedReq           113                       # Transaction distribution
system.membus.pkt_count_system.cpu.icache.mem_side::system.mem_ctrls.port         8634                       # Packet count per connected master and slave (bytes)
system.membus.pkt_count_system.cpu.dcache.mem_side::system.mem_ctrls.port          363                       # Packet count per connected master and slave (bytes)
system.membus.pkt_count::total                   8997                       # Packet count per connected master and slave (bytes)
system.membus.pkt_size_system.cpu.icache.mem_side::system.mem_ctrls.port       361536                       # Cumulative packet size per connected master and slave (bytes)
system.membus.pkt_size_system.cpu.dcache.mem_side::system.mem_ctrls.port        11584                       # Cumulative packet size per connected master and slave (bytes)
system.membus.pkt_size::total                  373120                       # Cumulative packet size per connected master and slave (bytes)
system.membus.snoops                                0                       # Total snoops (count)
system.membus.snoopTraffic                          0                       # Total snoop traffic (bytes)
system.membus.snoop_fanout::samples              3166                       # Request fanout histogram
system.membus.snoop_fanout::mean             0.007896                       # Request fanout histogram
system.membus.snoop_fanout::stdev            0.088524                       # Request fanout histogram
system.membus.snoop_fanout::underflows              0      0.00%      0.00% # Request fanout histogram
system.membus.snoop_fanout::0                    3141     99.21%     99.21% # Request fanout histogram
system.membus.snoop_fanout::1                      25      0.79%    100.00% # Request fanout histogram
system.membus.snoop_fanout::2                       0      0.00%    100.00% # Request fanout histogram
system.membus.snoop_fanout::overflows               0      0.00%    100.00% # Request fanout histogram
system.membus.snoop_fanout::min_value               0                       # Request fanout histogram
system.membus.snoop_fanout::max_value               1                       # Request fanout histogram
system.membus.snoop_fanout::total                3166                       # Request fanout histogram
system.membus.reqLayer0.occupancy            17047500                       # Layer occupancy (ticks)
system.membus.reqLayer0.utilization               7.6                       # Layer utilization (%)
system.membus.respLayer1.occupancy           15050750                       # Layer occupancy (ticks)
system.membus.respLayer1.utilization              6.7                       # Layer utilization (%)
system.membus.respLayer2.occupancy             968750                       # Layer occupancy (ticks)
system.membus.respLayer2.utilization              0.4                       # Layer utilization (%)
system.voltage_domain.voltage                       1                       # Voltage in Volts
system.clk_domain.clock                          1000                       # Clock period in ticks
system.cpu_voltage_domain.voltage                   1                       # Voltage in Volts
system.mem_ctrls.pwrStateResidencyTicks::UNDEFINED    224536000                       # Cumulative time (in ticks) in various power states
system.mem_ctrls.bytes_read::.cpu.inst         191040                       # Number of bytes read from this memory
system.mem_ctrls.bytes_read::.cpu.data          11584                       # Number of bytes read from this memory
system.mem_ctrls.bytes_read::total             202624                       # Number of bytes read from this memory
system.mem_ctrls.bytes_inst_read::.cpu.inst       191040                       # Number of instructions bytes read from this memory
system.mem_ctrls.bytes_inst_read::total        191040                       # Number of instructions bytes read from this memory
system.mem_ctrls.num_reads::.cpu.inst            2985                       # Number of read requests responded to by this memory
system.mem_ctrls.num_reads::.cpu.data             181                       # Number of read requests responded to by this memory
system.mem_ctrls.num_reads::total                3166                       # Number of read requests responded to by this memory
system.mem_ctrls.bw_read::.cpu.inst         850821249                       # Total read bandwidth from this memory (bytes/s)
system.mem_ctrls.bw_read::.cpu.data          51590836                       # Total read bandwidth from this memory (bytes/s)
system.mem_ctrls.bw_read::total             902412085                       # Total read bandwidth from this memory (bytes/s)
system.mem_ctrls.bw_inst_read::.cpu.inst    850821249                       # Instruction read bandwidth from this memory (bytes/s)
system.mem_ctrls.bw_inst_read::total        850821249                       # Instruction read bandwidth from this memory (bytes/s)
system.mem_ctrls.bw_total::.cpu.inst        850821249                       # Total bandwidth to/from this memory (bytes/s)
system.mem_ctrls.bw_total::.cpu.data         51590836                       # Total bandwidth to/from this memory (bytes/s)
system.mem_ctrls.bw_total::total            902412085                       # Total bandwidth to/from this memory (bytes/s)
system.mem_ctrls.avgPriority_.writebacks::samples       110.00                       # Average QoS priority value for accepted requests
system.mem_ctrls.avgPriority_.cpu.inst::samples       413.00                       # Average QoS priority value for accepted requests
system.mem_ctrls.avgPriority_.cpu.data::samples       180.00                       # Average QoS priority value for accepted requests
system.mem_ctrls.priorityMinLatency      0.000000018750                       # per QoS priority minimum request to response latency (s)
system.mem_ctrls.priorityMaxLatency      0.000399782500                       # per QoS priority maximum request to response latency (s)
system.mem_ctrls.numReadWriteTurnArounds            5                       # Number of turnarounds from READ to WRITE
system.mem_ctrls.numWriteReadTurnArounds            5                       # Number of turnarounds from WRITE to READ
system.mem_ctrls.numStayReadState                3890                       # Number of times bus staying in READ state
system.mem_ctrls.numStayWriteState                 75                       # Number of times bus staying in WRITE state
system.mem_ctrls.readReqs                        3166                       # Number of read requests accepted
system.mem_ctrls.writeReqs                       2660                       # Number of write requests accepted
system.mem_ctrls.readBursts                      3166                       # Number of DRAM read bursts, including those serviced by the write queue
system.mem_ctrls.writeBursts                     2660                       # Number of DRAM write bursts, including those merged in the write queue
system.mem_ctrls.servicedByWrQ                   2573                       # Number of DRAM read bursts serviced by the write queue
system.mem_ctrls.mergedWrBursts                  2550                       # Number of DRAM write bursts merged with an existing one
system.mem_ctrls.neitherReadNorWriteReqs            0                       # Number of requests that are neither read nor write
system.mem_ctrls.perBankRdBursts::0                54                       # Per bank write bursts
system.mem_ctrls.perBankRdBursts::1                 2                       # Per bank write bursts
system.mem_ctrls.perBankRdBursts::2                24                       # Per bank write bursts
system.mem_ctrls.perBankRdBursts::3                54                       # Per bank write bursts
system.mem_ctrls.perBankRdBursts::4                13                       # Per bank write bursts
system.mem_ctrls.perBankRdBursts::5                39                       # Per bank write bursts
system.mem_ctrls.perBankRdBursts::6                44                       # Per bank write bursts
system.mem_ctrls.perBankRdBursts::7                57                       # Per bank write bursts
system.mem_ctrls.perBankRdBursts::8               112                       # Per bank write bursts
system.mem_ctrls.perBankRdBursts::9                68                       # Per bank write bursts
system.mem_ctrls.perBankRdBursts::10               28                       # Per bank write bursts
system.mem_ctrls.perBankRdBursts::11               73                       # Per bank write bursts
system.mem_ctrls.perBankRdBursts::12               11                       # Per bank write bursts
system.mem_ctrls.perBankRdBursts::13                8                       # Per bank write bursts
system.mem_ctrls.perBankRdBursts::14                6                       # Per bank write bursts
system.mem_ctrls.perBankRdBursts::15                0                       # Per bank write bursts
system.mem_ctrls.perBankWrBursts::0                12                       # Per bank write bursts
system.mem_ctrls.perBankWrBursts::1                 0                       # Per bank write bursts
system.mem_ctrls.perBankWrBursts::2                 2                       # Per bank write bursts
system.mem_ctrls.perBankWrBursts::3                 5                       # Per bank write bursts
system.mem_ctrls.perBankWrBursts::4                 0                       # Per bank write bursts
system.mem_ctrls.perBankWrBursts::5                 1                       # Per bank write bursts
system.mem_ctrls.perBankWrBursts::6                 3                       # Per bank write bursts
system.mem_ctrls.perBankWrBursts::7                14                       # Per bank write bursts
system.mem_ctrls.perBankWrBursts::8                17                       # Per bank write bursts
system.mem_ctrls.perBankWrBursts::9                11                       # Per bank write bursts
system.mem_ctrls.perBankWrBursts::10                0                       # Per bank write bursts
system.mem_ctrls.perBankWrBursts::11               15                       # Per bank write bursts
system.mem_ctrls.perBankWrBursts::12                0                       # Per bank write bursts
system.mem_ctrls.perBankWrBursts::13                0                       # Per bank write bursts
system.mem_ctrls.perBankWrBursts::14                0                       # Per bank write bursts
system.mem_ctrls.perBankWrBursts::15                0                       # Per bank write bursts
system.mem_ctrls.avgRdQLen                       1.03                       # Average read queue length when enqueuing
system.mem_ctrls.avgWrQLen                      24.65                       # Average write queue length when enqueuing
system.mem_ctrls.totQLat                      4444000                       # Total ticks spent queuing
system.mem_ctrls.totBusLat                    2965000                       # Total ticks spent in databus transfers
system.mem_ctrls.totMemAccLat                15562750                       # Total ticks spent from burst creation until serviced by the DRAM
system.mem_ctrls.avgQLat                      7494.10                       # Average queueing delay per DRAM burst
system.mem_ctrls.avgBusLat                    5000.00                       # Average bus latency per DRAM burst
system.mem_ctrls.avgMemAccLat                26244.10                       # Average memory access latency per DRAM burst
system.mem_ctrls.numRdRetry                         0                       # Number of times read queue was full causing retry
system.mem_ctrls.numWrRetry                         0                       # Number of times write queue was full causing retry
system.mem_ctrls.readRowHits                      476                       # Number of row buffer hits during reads
system.mem_ctrls.writeRowHits                      67                       # Number of row buffer hits during writes
system.mem_ctrls.readRowHitRate                 80.27                       # Row buffer hit rate for reads
system.mem_ctrls.writeRowHitRate                60.91                       # Row buffer hit rate for writes
system.mem_ctrls.readPktSize::0                     0                       # Read request sizes (log2)
system.mem_ctrls.readPktSize::1                     0                       # Read request sizes (log2)
system.mem_ctrls.readPktSize::2                     0                       # Read request sizes (log2)
system.mem_ctrls.readPktSize::3                     0                       # Read request sizes (log2)
system.mem_ctrls.readPktSize::4                     0                       # Read request sizes (log2)
system.mem_ctrls.readPktSize::5                     0                       # Read request sizes (log2)
system.mem_ctrls.readPktSize::6                  3166                       # Read request sizes (log2)
system.mem_ctrls.writePktSize::0                    0                       # Write request sizes (log2)
system.mem_ctrls.writePktSize::1                    0                       # Write request sizes (log2)
system.mem_ctrls.writePktSize::2                    0                       # Write request sizes (log2)
system.mem_ctrls.writePktSize::3                    0                       # Write request sizes (log2)
system.mem_ctrls.writePktSize::4                    0                       # Write request sizes (log2)
system.mem_ctrls.writePktSize::5                    0                       # Write request sizes (log2)
system.mem_ctrls.writePktSize::6                 2660                       # Write request sizes (log2)
system.mem_ctrls.rdQLenPdf::0                     496                       # What read queue length does an incoming req see
system.mem_ctrls.rdQLenPdf::1                      90                       # What read queue length does an incoming req see
system.mem_ctrls.rdQLenPdf::2                       7                       # What read queue length does an incoming req see
system.mem_ctrls.rdQLenPdf::3                       0                       # What read queue length does an incoming req see
system.mem_ctrls.rdQLenPdf::4                       0                       # What read queue length does an incoming req see
system.mem_ctrls.rdQLenPdf::5                       0                       # What read queue length does an incoming req see
system.mem_ctrls.rdQLenPdf::6                       0                       # What read queue length does an incoming req see
system.mem_ctrls.rdQLenPdf::7                       0                       # What read queue length does an incoming req see
system.mem_ctrls.rdQLenPdf::8                       0                       # What read queue length does an incoming req see
system.mem_ctrls.rdQLenPdf::9                       0                       # What read queue length does an incoming req see
system.mem_ctrls.rdQLenPdf::10                      0                       # What read queue length does an incoming req see
system.mem_ctrls.rdQLenPdf::11                      0                       # What read queue length does an incoming req see
system.mem_ctrls.rdQLenPdf::12                      0                       # What read queue length does an incoming req see
system.mem_ctrls.rdQLenPdf::13                      0                       # What read queue length does an incoming req see
system.mem_ctrls.rdQLenPdf::14                      0                       # What read queue length does an incoming req see
system.mem_ctrls.rdQLenPdf::15                      0                       # What read queue length does an incoming req see
system.mem_ctrls.rdQLenPdf::16                      0                       # What read queue length does an incoming req see
system.mem_ctrls.rdQLenPdf::17                      0                       # What read queue length does an incoming req see
system.mem_ctrls.rdQLenPdf::18                      0                       # What read queue length does an incoming req see
system.mem_ctrls.rdQLenPdf::19                      0                       # What read queue length does an incoming req see
system.mem_ctrls.rdQLenPdf::20                      0                       # What read queue length does an incoming req see
system.mem_ctrls.rdQLenPdf::21                      0                       # What read queue length does an incoming req see
system.mem_ctrls.rdQLenPdf::22                      0                       # What read queue length does an incoming req see
system.mem_ctrls.rdQLenPdf::23                      0                       # What read queue length does an incoming req see
system.mem_ctrls.rdQLenPdf::24                      0                       # What read queue length does an incoming req see
system.mem_ctrls.rdQLenPdf::25                      0                       # What read queue length does an incoming req see
system.mem_ctrls.rdQLenPdf::26                      0                       # What read queue length does an incoming req see
system.mem_ctrls.rdQLenPdf::27                      0                       # What read queue length does an incoming req see
system.mem_ctrls.rdQLenPdf::28                      0                       # What read queue length does an incoming req see
system.mem_ctrls.rdQLenPdf::29                      0                       # What read queue length does an incoming req see
system.mem_ctrls.rdQLenPdf::30                      0                       # What read queue length does an incoming req see
system.mem_ctrls.rdQLenPdf::31                      0                       # What read queue length does an incoming req see
system.mem_ctrls.wrQLenPdf::0                       1                       # What write queue length does an incoming req see
system.mem_ctrls.wrQLenPdf::1                       1                       # What write queue length does an incoming req see
system.mem_ctrls.wrQLenPdf::2                       1                       # What write queue length does an incoming req see
system.mem_ctrls.wrQLenPdf::3                       1                       # What write queue length does an incoming req see
system.mem_ctrls.wrQLenPdf::4                       1                       # What write queue length does an incoming req see
system.mem_ctrls.wrQLenPdf::5                       1                       # What write queue length does an incoming req see
system.mem_ctrls.wrQLenPdf::6                       1                       # What write queue length does an incoming req see
system.mem_ctrls.wrQLenPdf::7                       1                       # What write queue length does an incoming req see
system.mem_ctrls.wrQLenPdf::8                       1                       # What write queue length does an incoming req see
system.mem_ctrls.wrQLenPdf::9                       1                       # What write queue length does an incoming req see
system.mem_ctrls.wrQLenPdf::10                      1                       # What write queue length does an incoming req see
system.mem_ctrls.wrQLenPdf::11                      1                       # What write queue length does an incoming req see
system.mem_ctrls.wrQLenPdf::12                      1                       # What write queue length does an incoming req see
system.mem_ctrls.wrQLenPdf::13                      1                       # What write queue length does an incoming req see
system.mem_ctrls.wrQLenPdf::14                      1                       # What write queue length does an incoming req see
system.mem_ctrls.wrQLenPdf::15                      1                       # What write queue length does an incoming req see
system.mem_ctrls.wrQLenPdf::16                      1                       # What write queue length does an incoming req see
system.mem_ctrls.wrQLenPdf::17                      6                       # What write queue length does an incoming req see
system.mem_ctrls.wrQLenPdf::18                      6                       # What write queue length does an incoming req see
system.mem_ctrls.wrQLenPdf::19                      6                       # What write queue length does an incoming req see
system.mem_ctrls.wrQLenPdf::20                      6                       # What write queue length does an incoming req see
system.mem_ctrls.wrQLenPdf::21                      6                       # What write queue length does an incoming req see
system.mem_ctrls.wrQLenPdf::22                      6                       # What write queue length does an incoming req see
system.mem_ctrls.wrQLenPdf::23                      6                       # What write queue length does an incoming req see
system.mem_ctrls.wrQLenPdf::24                      6                       # What write queue length does an incoming req see
system.mem_ctrls.wrQLenPdf::25                      6                       # What write queue length does an incoming req see
system.mem_ctrls.wrQLenPdf::26                      6                       # What write queue length does an incoming req see
system.mem_ctrls.wrQLenPdf::27                      6                       # What write queue length does an incoming req see
system.mem_ctrls.wrQLenPdf::28                      6                       # What write queue length does an incoming req see
system.mem_ctrls.wrQLenPdf::29                      6                       # What write queue length does an incoming req see
system.mem_ctrls.wrQLenPdf::30                      5                       # What write queue length does an incoming req see
system.mem_ctrls.wrQLenPdf::31                      5                       # What write queue length does an incoming req see
system.mem_ctrls.wrQLenPdf::32                      5                       # What write queue length does an incoming req see
system.mem_ctrls.wrQLenPdf::33                      0                       # What write queue length does an incoming req see
system.mem_ctrls.wrQLenPdf::34                      0                       # What write queue length does an incoming req see
system.mem_ctrls.wrQLenPdf::35                      0                       # What write queue length does an incoming req see
system.mem_ctrls.wrQLenPdf::36                      0                       # What write queue length does an incoming req see
system.mem_ctrls.wrQLenPdf::37                      0                       # What write queue length does an incoming req see
system.mem_ctrls.wrQLenPdf::38                      0                       # What write queue length does an incoming req see
system.mem_ctrls.wrQLenPdf::39                      0                       # What write queue length does an incoming req see
system.mem_ctrls.wrQLenPdf::40                      0                       # What write queue length does an incoming req see
system.mem_ctrls.wrQLenPdf::41                      0                       # What write queue length does an incoming req see
system.mem_ctrls.wrQLenPdf::42                      0                       # What write queue length does an incoming req see
system.mem_ctrls.wrQLenPdf::43                      0                       # What write queue length does an incoming req see
system.mem_ctrls.wrQLenPdf::44                      0                       # What write queue length does an incoming req see
system.mem_ctrls.wrQLenPdf::45                      0                       # What write queue length does an incoming req see
system.mem_ctrls.wrQLenPdf::46                      0                       # What write queue length does an incoming req see
system.mem_ctrls.wrQLenPdf::47                      0                       # What write queue length does an incoming req see
system.mem_ctrls.wrQLenPdf::48                      0                       # What write queue length does an incoming req see
system.mem_ctrls.wrQLenPdf::49                      0                       # What write queue length does an incoming req see
system.mem_ctrls.wrQLenPdf::50                      0                       # What write queue length does an incoming req see
system.mem_ctrls.wrQLenPdf::51                      0                       # What write queue length does an incoming req see
system.mem_ctrls.wrQLenPdf::52                      0                       # What write queue length does an incoming req see
system.mem_ctrls.wrQLenPdf::53                      0                       # What write queue length does an incoming req see
system.mem_ctrls.wrQLenPdf::54                      0                       # What write queue length does an incoming req see
system.mem_ctrls.wrQLenPdf::55                      0                       # What write queue length does an incoming req see
system.mem_ctrls.wrQLenPdf::56                      0                       # What write queue length does an incoming req see
system.mem_ctrls.wrQLenPdf::57                      0                       # What write queue length does an incoming req see
system.mem_ctrls.wrQLenPdf::58                      0                       # What write queue length does an incoming req see
system.mem_ctrls.wrQLenPdf::59                      0                       # What write queue length does an incoming req see
system.mem_ctrls.wrQLenPdf::60                      0                       # What write queue length does an incoming req see
system.mem_ctrls.wrQLenPdf::61                      0                       # What write queue length does an incoming req see
system.mem_ctrls.wrQLenPdf::62                      0                       # What write queue length does an incoming req see
system.mem_ctrls.wrQLenPdf::63                      0                       # What write queue length does an incoming req see
system.mem_ctrls.bytesPerActivate::samples          120                       # Bytes accessed per row activation
system.mem_ctrls.bytesPerActivate::mean    337.600000                       # Bytes accessed per row activation
system.mem_ctrls.bytesPerActivate::gmean   225.774391                       # Bytes accessed per row activation
system.mem_ctrls.bytesPerActivate::stdev   316.372039                       # Bytes accessed per row activation
system.mem_ctrls.bytesPerActivate::0-127           22     18.33%     18.33% # Bytes accessed per row activation
system.mem_ctrls.bytesPerActivate::128-255           42     35.00%     53.33% # Bytes accessed per row activation
system.mem_ctrls.bytesPerActivate::256-383           22     18.33%     71.67% # Bytes accessed per row activation
system.mem_ctrls.bytesPerActivate::384-511            8      6.67%     78.33% # Bytes accessed per row activation
system.mem_ctrls.bytesPerActivate::512-639            3      2.50%     80.83% # Bytes accessed per row activation
system.mem_ctrls.bytesPerActivate::640-767            2      1.67%     82.50% # Bytes accessed per row activation
system.mem_ctrls.bytesPerActivate::768-895            5      4.17%     86.67% # Bytes accessed per row activation
system.mem_ctrls.bytesPerActivate::896-1023            3      2.50%     89.17% # Bytes accessed per row activation
system.mem_ctrls.bytesPerActivate::1024-1151           13     10.83%    100.00% # Bytes accessed per row activation
system.mem_ctrls.bytesPerActivate::total          120                       # Bytes accessed per row activation
system.mem_ctrls.rdPerTurnAround::samples            5                       # Reads before turning the bus around for writes
system.mem_ctrls.rdPerTurnAround::mean     109.600000                       # Reads before turning the bus around for writes
system.mem_ctrls.rdPerTurnAround::gmean     53.834872                       # Reads before turning the bus around for writes
system.mem_ctrls.rdPerTurnAround::stdev    168.396259                       # Reads before turning the bus around for writes
system.mem_ctrls.rdPerTurnAround::16-31             2     40.00%     40.00% # Reads before turning the bus around for writes
system.mem_ctrls.rdPerTurnAround::32-47             1     20.00%     60.00% # Reads before turning the bus around for writes
system.mem_ctrls.rdPerTurnAround::48-63             1     20.00%     80.00% # Reads before turning the bus around for writes
system.mem_ctrls.rdPerTurnAround::400-415            1     20.00%    100.00% # Reads before turning the bus around for writes
system.mem_ctrls.rdPerTurnAround::total             5                       # Reads before turning the bus around for writes
system.mem_ctrls.wrPerTurnAround::samples            5                       # Writes before turning the bus around for reads
system.mem_ctrls.wrPerTurnAround::mean             16                       # Writes before turning the bus around for reads
system.mem_ctrls.wrPerTurnAround::gmean     16.000000                       # Writes before turning the bus around for reads
system.mem_ctrls.wrPerTurnAround::16                5    100.00%    100.00% # Writes before turning the bus around for reads
system.mem_ctrls.wrPerTurnAround::total             5                       # Writes before turning the bus around for reads
system.mem_ctrls.bytesReadDRAM                  37952                       # Total number of bytes read from DRAM
system.mem_ctrls.bytesReadWrQ                  164672                       # Total number of bytes read from write queue
system.mem_ctrls.bytesWritten                    5120                       # Total number of bytes written to DRAM
system.mem_ctrls.bytesReadSys                  202624                       # Total read bytes from the system interface side
system.mem_ctrls.bytesWrittenSys               170240                       # Total written bytes from the system interface side
system.mem_ctrls.avgRdBW                       169.02                       # Average DRAM read bandwidth in MiByte/s
system.mem_ctrls.avgWrBW                        22.80                       # Average achieved write bandwidth in MiByte/s
system.mem_ctrls.avgRdBWSys                    902.41                       # Average system read bandwidth in MiByte/s
system.mem_ctrls.avgWrBWSys                    758.19                       # Average system write bandwidth in MiByte/s
system.mem_ctrls.peakBW                      12800.00                       # Theoretical peak bandwidth in MiByte/s
system.mem_ctrls.busUtil                         1.50                       # Data bus utilization in percentage
system.mem_ctrls.busUtilRead                     1.32                       # Data bus utilization in percentage for reads
system.mem_ctrls.busUtilWrite                    0.18                       # Data bus utilization in percentage for writes
system.mem_ctrls.totGap                     224477500                       # Total gap between requests
system.mem_ctrls.avgGap                      38530.30                       # Average gap between requests
system.mem_ctrls.masterReadBytes::.cpu.inst        26432                       # Per-master bytes read from memory
system.mem_ctrls.masterReadBytes::.cpu.data        11520                       # Per-master bytes read from memory
system.mem_ctrls.masterWriteBytes::.writebacks         5120                       # Per-master bytes write to memory
system.mem_ctrls.masterReadRate::.cpu.inst 117718316.884597569704                       # Per-master bytes read from memory rate (Bytes/sec)
system.mem_ctrls.masterReadRate::.cpu.data 51305803.969074003398                       # Per-master bytes read from memory rate (Bytes/sec)
system.mem_ctrls.masterWriteRate::.writebacks 22802579.541810665280                       # Per-master bytes write to memory rate (Bytes/sec)
system.mem_ctrls.masterReadAccesses::.cpu.inst         2985                       # Per-master read serviced memory accesses
system.mem_ctrls.masterReadAccesses::.cpu.data          181                       # Per-master read serviced memory accesses
system.mem_ctrls.masterWriteAccesses::.writebacks         2660                       # Per-master write serviced memory accesses
system.mem_ctrls.masterReadTotalLat::.cpu.inst     10613250                       # Per-master read total memory access latency
system.mem_ctrls.masterReadTotalLat::.cpu.data      4949500                       # Per-master read total memory access latency
system.mem_ctrls.masterWriteTotalLat::.writebacks   2792158000                       # Per-master write total memory access latency
system.mem_ctrls.masterReadAvgLat::.cpu.inst      3555.53                       # Per-master read average memory access latency
system.mem_ctrls.masterReadAvgLat::.cpu.data     27345.30                       # Per-master read average memory access latency
system.mem_ctrls.masterWriteAvgLat::.writebacks   1049683.46                       # Per-master write average memory access latency
system.mem_ctrls.pageHitRate                    77.24                       # Row buffer hit rate, read and write combined
system.mem_ctrls.rank1.actEnergy               535500                       # Energy for activate commands per rank (pJ)
system.mem_ctrls.rank1.preEnergy               261855                       # Energy for precharge commands per rank (pJ)
system.mem_ctrls.rank1.readEnergy             2184840                       # Energy for read commands per rank (pJ)
system.mem_ctrls.rank1.writeEnergy             224460                       # Energy for write commands per rank (pJ)
system.mem_ctrls.rank1.refreshEnergy     17209920.000000                       # Energy for refresh commands per rank (pJ)
system.mem_ctrls.rank1.actBackEnergy         21189750                       # Energy for active background per rank (pJ)
system.mem_ctrls.rank1.preBackEnergy         68377920                       # Energy for precharge background per rank (pJ)
system.mem_ctrls.rank1.actPowerDownEnergy            0                       # Energy for active power-down per rank (pJ)
system.mem_ctrls.rank1.prePowerDownEnergy            0                       # Energy for precharge power-down per rank (pJ)
system.mem_ctrls.rank1.selfRefreshEnergy            0                       # Energy for self refresh per rank (pJ)
system.mem_ctrls.rank1.totalEnergy          109984245                       # Total energy per rank (pJ)
system.mem_ctrls.rank1.averagePower        489.829003                       # Core power per rank (mW)
system.mem_ctrls.rank1.totalIdleTime                0                       # Total Idle time Per DRAM Rank
system.mem_ctrls.rank1.memoryStateTime::IDLE    177612750                       # Time in different power states
system.mem_ctrls.rank1.memoryStateTime::REF      7280000                       # Time in different power states
system.mem_ctrls.rank1.memoryStateTime::SREF            0                       # Time in different power states
system.mem_ctrls.rank1.memoryStateTime::PRE_PDN            0                       # Time in different power states
system.mem_ctrls.rank1.memoryStateTime::ACT     39643250                       # Time in different power states
system.mem_ctrls.rank1.memoryStateTime::ACT_PDN            0                       # Time in different power states
system.mem_ctrls.rank0.actEnergy               392700                       # Energy for activate commands per rank (pJ)
system.mem_ctrls.rank0.preEnergy               193545                       # Energy for precharge commands per rank (pJ)
system.mem_ctrls.rank0.readEnergy             2049180                       # Energy for read commands per rank (pJ)
system.mem_ctrls.rank0.writeEnergy             193140                       # Energy for write commands per rank (pJ)
system.mem_ctrls.rank0.refreshEnergy     17209920.000000                       # Energy for refresh commands per rank (pJ)
system.mem_ctrls.rank0.actBackEnergy         20732040                       # Energy for active background per rank (pJ)
system.mem_ctrls.rank0.preBackEnergy         68763360                       # Energy for precharge background per rank (pJ)
system.mem_ctrls.rank0.actPowerDownEnergy            0                       # Energy for active power-down per rank (pJ)
system.mem_ctrls.rank0.prePowerDownEnergy            0                       # Energy for precharge power-down per rank (pJ)
system.mem_ctrls.rank0.selfRefreshEnergy            0                       # Energy for self refresh per rank (pJ)
system.mem_ctrls.rank0.totalEnergy          109533885                       # Total energy per rank (pJ)
system.mem_ctrls.rank0.averagePower        487.823267                       # Core power per rank (mW)
system.mem_ctrls.rank0.totalIdleTime                0                       # Total Idle time Per DRAM Rank
system.mem_ctrls.rank0.memoryStateTime::IDLE    178586750                       # Time in different power states
system.mem_ctrls.rank0.memoryStateTime::REF      7280000                       # Time in different power states
system.mem_ctrls.rank0.memoryStateTime::SREF            0                       # Time in different power states
system.mem_ctrls.rank0.memoryStateTime::PRE_PDN            0                       # Time in different power states
system.mem_ctrls.rank0.memoryStateTime::ACT     38669250                       # Time in different power states
system.mem_ctrls.rank0.memoryStateTime::ACT_PDN            0                       # Time in different power states
system.cpu_clk_domain.clock                       500                       # Clock period in ticks
system.cpu.pwrStateResidencyTicks::ON       224536000                       # Cumulative time (in ticks) in various power states
system.cpu.icache.pwrStateResidencyTicks::UNDEFINED    224536000                       # Cumulative time (in ticks) in various power states
system.cpu.icache.demand_hits::.cpu.inst        72795                       # number of demand (read+write) hits
system.cpu.icache.demand_hits::total            72795                       # number of demand (read+write) hits
system.cpu.icache.overall_hits::.cpu.inst        72795                       # number of overall hits
system.cpu.icache.overall_hits::total           72795                       # number of overall hits
system.cpu.icache.demand_misses::.cpu.inst         2985                       # number of demand (read+write) misses
system.cpu.icache.demand_misses::total           2985                       # number of demand (read+write) misses
system.cpu.icache.overall_misses::.cpu.inst         2985                       # number of overall misses
system.cpu.icache.overall_misses::total          2985                       # number of overall misses
system.cpu.icache.demand_miss_latency::.cpu.inst     84280500                       # number of demand (read+write) miss cycles
system.cpu.icache.demand_miss_latency::total     84280500                       # number of demand (read+write) miss cycles
system.cpu.icache.overall_miss_latency::.cpu.inst     84280500                       # number of overall miss cycles
system.cpu.icache.overall_miss_latency::total     84280500                       # number of overall miss cycles
system.cpu.icache.demand_accesses::.cpu.inst        75780                       # number of demand (read+write) accesses
system.cpu.icache.demand_accesses::total        75780                       # number of demand (read+write) accesses
system.cpu.icache.overall_accesses::.cpu.inst        75780                       # number of overall (read+write) accesses
system.cpu.icache.overall_accesses::total        75780                       # number of overall (read+write) accesses
system.cpu.icache.demand_miss_rate::.cpu.inst     0.039390                       # miss rate for demand accesses
system.cpu.icache.demand_miss_rate::total     0.039390                       # miss rate for demand accesses
system.cpu.icache.overall_miss_rate::.cpu.inst     0.039390                       # miss rate for overall accesses
system.cpu.icache.overall_miss_rate::total     0.039390                       # miss rate for overall accesses
system.cpu.icache.demand_avg_miss_latency::.cpu.inst 28234.673367                       # average overall miss latency
system.cpu.icache.demand_avg_miss_latency::total 28234.673367                       # average overall miss latency
system.cpu.icache.overall_avg_miss_latency::.cpu.inst 28234.673367                       # average overall miss latency
system.cpu.icache.overall_avg_miss_latency::total 28234.673367                       # average overall miss latency
system.cpu.icache.blocked_cycles::no_mshrs            0                       # number of cycles access was blocked
system.cpu.icache.blocked_cycles::no_targets            0                       # number of cycles access was blocked
system.cpu.icache.blocked::no_mshrs                 0                       # number of cycles access was blocked
system.cpu.icache.blocked::no_targets               0                       # number of cycles access was blocked
system.cpu.icache.avg_blocked_cycles::no_mshrs          nan                       # average number of cycles each access was blocked
system.cpu.icache.avg_blocked_cycles::no_targets          nan                       # average number of cycles each access was blocked
system.cpu.icache.writebacks::.writebacks         2664                       # number of writebacks
system.cpu.icache.writebacks::total              2664                       # number of writebacks
system.cpu.icache.demand_mshr_misses::.cpu.inst         2985                       # number of demand (read+write) MSHR misses
system.cpu.icache.demand_mshr_misses::total         2985                       # number of demand (read+write) MSHR misses
system.cpu.icache.overall_mshr_misses::.cpu.inst         2985                       # number of overall MSHR misses
system.cpu.icache.overall_mshr_misses::total         2985                       # number of overall MSHR misses
system.cpu.icache.demand_mshr_miss_latency::.cpu.inst     81295500                       # number of demand (read+write) MSHR miss cycles
system.cpu.icache.demand_mshr_miss_latency::total     81295500                       # number of demand (read+write) MSHR miss cycles
system.cpu.icache.overall_mshr_miss_latency::.cpu.inst     81295500                       # number of overall MSHR miss cycles
system.cpu.icache.overall_mshr_miss_latency::total     81295500                       # number of overall MSHR miss cycles
system.cpu.icache.demand_mshr_miss_rate::.cpu.inst     0.039390                       # mshr miss rate for demand accesses
system.cpu.icache.demand_mshr_miss_rate::total     0.039390                       # mshr miss rate for demand accesses
system.cpu.icache.overall_mshr_miss_rate::.cpu.inst     0.039390                       # mshr miss rate for overall accesses
system.cpu.icache.overall_mshr_miss_rate::total     0.039390                       # mshr miss rate for overall accesses
system.cpu.icache.demand_avg_mshr_miss_latency::.cpu.inst 27234.673367                       # average overall mshr miss latency
system.cpu.icache.demand_avg_mshr_miss_latency::total 27234.673367                       # average overall mshr miss latency
system.cpu.icache.overall_avg_mshr_miss_latency::.cpu.inst 27234.673367                       # average overall mshr miss latency
system.cpu.icache.overall_avg_mshr_miss_latency::total 27234.673367                       # average overall mshr miss latency
system.cpu.icache.replacements                   2664                       # number of replacements
system.cpu.icache.ReadReq_hits::.cpu.inst        72795                       # number of ReadReq hits
system.cpu.icache.ReadReq_hits::total           72795                       # number of ReadReq hits
system.cpu.icache.ReadReq_misses::.cpu.inst         2985                       # number of ReadReq misses
system.cpu.icache.ReadReq_misses::total          2985                       # number of ReadReq misses
system.cpu.icache.ReadReq_miss_latency::.cpu.inst     84280500                       # number of ReadReq miss cycles
system.cpu.icache.ReadReq_miss_latency::total     84280500                       # number of ReadReq miss cycles
system.cpu.icache.ReadReq_accesses::.cpu.inst        75780                       # number of ReadReq accesses(hits+misses)
system.cpu.icache.ReadReq_accesses::total        75780                       # number of ReadReq accesses(hits+misses)
system.cpu.icache.ReadReq_miss_rate::.cpu.inst     0.039390                       # miss rate for ReadReq accesses
system.cpu.icache.ReadReq_miss_rate::total     0.039390                       # miss rate for ReadReq accesses
system.cpu.icache.ReadReq_avg_miss_latency::.cpu.inst 28234.673367                       # average ReadReq miss latency
system.cpu.icache.ReadReq_avg_miss_latency::total 28234.673367                       # average ReadReq miss latency
system.cpu.icache.ReadReq_mshr_misses::.cpu.inst         2985                       # number of ReadReq MSHR misses
system.cpu.icache.ReadReq_mshr_misses::total         2985                       # number of ReadReq MSHR misses
system.cpu.icache.ReadReq_mshr_miss_latency::.cpu.inst     81295500                       # number of ReadReq MSHR miss cycles
system.cpu.icache.ReadReq_mshr_miss_latency::total     81295500                       # number of ReadReq MSHR miss cycles
system.cpu.icache.ReadReq_mshr_miss_rate::.cpu.inst     0.039390                       # mshr miss rate for ReadReq accesses
system.cpu.icache.ReadReq_mshr_miss_rate::total     0.039390                       # mshr miss rate for ReadReq accesses
system.cpu.icache.ReadReq_avg_mshr_miss_latency::.cpu.inst 27234.673367                       # average ReadReq mshr miss latency
system.cpu.icache.ReadReq_avg_mshr_miss_latency::total 27234.673367                       # average ReadReq mshr miss latency
system.cpu.icache.tags.pwrStateResidencyTicks::UNDEFINED    224536000                       # Cumulative time (in ticks) in various power states
system.cpu.icache.tags.tagsinuse           281.469528                       # Cycle average of tags in use
system.cpu.icache.tags.total_refs               75780                       # Total number of references to valid blocks.
system.cpu.icache.tags.sampled_refs              2985                       # Sample count of references to valid blocks.
system.cpu.icache.tags.avg_refs             25.386935                       # Average number of references to valid blocks.
system.cpu.icache.tags.warmup_cycle             77000                       # Cycle when the warmup percentage was hit.
system.cpu.icache.tags.occ_blocks::.cpu.inst   281.469528                       # Average occupied blocks per requestor
system.cpu.icache.tags.occ_percent::.cpu.inst     0.549745                       # Average percentage of cache occupancy
system.cpu.icache.tags.occ_percent::total     0.549745                       # Average percentage of cache occupancy
system.cpu.icache.tags.occ_task_id_blocks::1024          321                       # Occupied blocks per task id
system.cpu.icache.tags.age_task_id_blocks_1024::0           47                       # Occupied blocks per task id
system.cpu.icache.tags.age_task_id_blocks_1024::2          274                       # Occupied blocks per task id
system.cpu.icache.tags.occ_task_id_percent::1024     0.626953                       # Percentage of cache occupancy per task id
system.cpu.icache.tags.tag_accesses            154545                       # Number of tag accesses
system.cpu.icache.tags.data_accesses           154545                       # Number of data accesses
system.cpu.dtb.walker.pwrStateResidencyTicks::UNDEFINED    224536000                       # Cumulative time (in ticks) in various power states
system.cpu.dtb.stage2_mmu.stage2_tlb.walker.pwrStateResidencyTicks::UNDEFINED    224536000                       # Cumulative time (in ticks) in various power states
system.cpu.dcache.pwrStateResidencyTicks::UNDEFINED    224536000                       # Cumulative time (in ticks) in various power states
system.cpu.dcache.demand_hits::.cpu.data        76197                       # number of demand (read+write) hits
system.cpu.dcache.demand_hits::total            76197                       # number of demand (read+write) hits
system.cpu.dcache.overall_hits::.cpu.data        76217                       # number of overall hits
system.cpu.dcache.overall_hits::total           76217                       # number of overall hits
system.cpu.dcache.demand_misses::.cpu.data          224                       # number of demand (read+write) misses
system.cpu.dcache.demand_misses::total            224                       # number of demand (read+write) misses
system.cpu.dcache.overall_misses::.cpu.data          232                       # number of overall misses
system.cpu.dcache.overall_misses::total           232                       # number of overall misses
system.cpu.dcache.demand_miss_latency::.cpu.data     13575500                       # number of demand (read+write) miss cycles
system.cpu.dcache.demand_miss_latency::total     13575500                       # number of demand (read+write) miss cycles
system.cpu.dcache.overall_miss_latency::.cpu.data     13575500                       # number of overall miss cycles
system.cpu.dcache.overall_miss_latency::total     13575500                       # number of overall miss cycles
system.cpu.dcache.demand_accesses::.cpu.data        76421                       # number of demand (read+write) accesses
system.cpu.dcache.demand_accesses::total        76421                       # number of demand (read+write) accesses
system.cpu.dcache.overall_accesses::.cpu.data        76449                       # number of overall (read+write) accesses
system.cpu.dcache.overall_accesses::total        76449                       # number of overall (read+write) accesses
system.cpu.dcache.demand_miss_rate::.cpu.data     0.002931                       # miss rate for demand accesses
system.cpu.dcache.demand_miss_rate::total     0.002931                       # miss rate for demand accesses
system.cpu.dcache.overall_miss_rate::.cpu.data     0.003035                       # miss rate for overall accesses
system.cpu.dcache.overall_miss_rate::total     0.003035                       # miss rate for overall accesses
system.cpu.dcache.demand_avg_miss_latency::.cpu.data 60604.910714                       # average overall miss latency
system.cpu.dcache.demand_avg_miss_latency::total 60604.910714                       # average overall miss latency
system.cpu.dcache.overall_avg_miss_latency::.cpu.data 58515.086207                       # average overall miss latency
system.cpu.dcache.overall_avg_miss_latency::total 58515.086207                       # average overall miss latency
system.cpu.dcache.blocked_cycles::no_mshrs            0                       # number of cycles access was blocked
system.cpu.dcache.blocked_cycles::no_targets            0                       # number of cycles access was blocked
system.cpu.dcache.blocked::no_mshrs                 0                       # number of cycles access was blocked
system.cpu.dcache.blocked::no_targets               0                       # number of cycles access was blocked
system.cpu.dcache.avg_blocked_cycles::no_mshrs          nan                       # average number of cycles each access was blocked
system.cpu.dcache.avg_blocked_cycles::no_targets          nan                       # average number of cycles each access was blocked
system.cpu.dcache.demand_mshr_hits::.cpu.data           49                       # number of demand (read+write) MSHR hits
system.cpu.dcache.demand_mshr_hits::total           49                       # number of demand (read+write) MSHR hits
system.cpu.dcache.overall_mshr_hits::.cpu.data           49                       # number of overall MSHR hits
system.cpu.dcache.overall_mshr_hits::total           49                       # number of overall MSHR hits
system.cpu.dcache.demand_mshr_misses::.cpu.data          175                       # number of demand (read+write) MSHR misses
system.cpu.dcache.demand_mshr_misses::total          175                       # number of demand (read+write) MSHR misses
system.cpu.dcache.overall_mshr_misses::.cpu.data          181                       # number of overall MSHR misses
system.cpu.dcache.overall_mshr_misses::total          181                       # number of overall MSHR misses
system.cpu.dcache.demand_mshr_miss_latency::.cpu.data     10350000                       # number of demand (read+write) MSHR miss cycles
system.cpu.dcache.demand_mshr_miss_latency::total     10350000                       # number of demand (read+write) MSHR miss cycles
system.cpu.dcache.overall_mshr_miss_latency::.cpu.data     10693000                       # number of overall MSHR miss cycles
system.cpu.dcache.overall_mshr_miss_latency::total     10693000                       # number of overall MSHR miss cycles
system.cpu.dcache.demand_mshr_miss_rate::.cpu.data     0.002290                       # mshr miss rate for demand accesses
system.cpu.dcache.demand_mshr_miss_rate::total     0.002290                       # mshr miss rate for demand accesses
system.cpu.dcache.overall_mshr_miss_rate::.cpu.data     0.002368                       # mshr miss rate for overall accesses
system.cpu.dcache.overall_mshr_miss_rate::total     0.002368                       # mshr miss rate for overall accesses
system.cpu.dcache.demand_avg_mshr_miss_latency::.cpu.data 59142.857143                       # average overall mshr miss latency
system.cpu.dcache.demand_avg_mshr_miss_latency::total 59142.857143                       # average overall mshr miss latency
system.cpu.dcache.overall_avg_mshr_miss_latency::.cpu.data 59077.348066                       # average overall mshr miss latency
system.cpu.dcache.overall_avg_mshr_miss_latency::total 59077.348066                       # average overall mshr miss latency
system.cpu.dcache.replacements                      1                       # number of replacements
system.cpu.dcache.ReadReq_hits::.cpu.data        40874                       # number of ReadReq hits
system.cpu.dcache.ReadReq_hits::total           40874                       # number of ReadReq hits
system.cpu.dcache.ReadReq_misses::.cpu.data          110                       # number of ReadReq misses
system.cpu.dcache.ReadReq_misses::total           110                       # number of ReadReq misses
system.cpu.dcache.ReadReq_miss_latency::.cpu.data      6451000                       # number of ReadReq miss cycles
system.cpu.dcache.ReadReq_miss_latency::total      6451000                       # number of ReadReq miss cycles
system.cpu.dcache.ReadReq_accesses::.cpu.data        40984                       # number of ReadReq accesses(hits+misses)
system.cpu.dcache.ReadReq_accesses::total        40984                       # number of ReadReq accesses(hits+misses)
system.cpu.dcache.ReadReq_miss_rate::.cpu.data     0.002684                       # miss rate for ReadReq accesses
system.cpu.dcache.ReadReq_miss_rate::total     0.002684                       # miss rate for ReadReq accesses
system.cpu.dcache.ReadReq_avg_miss_latency::.cpu.data 58645.454545                       # average ReadReq miss latency
system.cpu.dcache.ReadReq_avg_miss_latency::total 58645.454545                       # average ReadReq miss latency
system.cpu.dcache.ReadReq_mshr_hits::.cpu.data            3                       # number of ReadReq MSHR hits
system.cpu.dcache.ReadReq_mshr_hits::total            3                       # number of ReadReq MSHR hits
system.cpu.dcache.ReadReq_mshr_misses::.cpu.data          107                       # number of ReadReq MSHR misses
system.cpu.dcache.ReadReq_mshr_misses::total          107                       # number of ReadReq MSHR misses
system.cpu.dcache.ReadReq_mshr_miss_latency::.cpu.data      6227000                       # number of ReadReq MSHR miss cycles
system.cpu.dcache.ReadReq_mshr_miss_latency::total      6227000                       # number of ReadReq MSHR miss cycles
system.cpu.dcache.ReadReq_mshr_miss_rate::.cpu.data     0.002611                       # mshr miss rate for ReadReq accesses
system.cpu.dcache.ReadReq_mshr_miss_rate::total     0.002611                       # mshr miss rate for ReadReq accesses
system.cpu.dcache.ReadReq_avg_mshr_miss_latency::.cpu.data 58196.261682                       # average ReadReq mshr miss latency
system.cpu.dcache.ReadReq_avg_mshr_miss_latency::total 58196.261682                       # average ReadReq mshr miss latency
system.cpu.dcache.WriteReq_hits::.cpu.data        35323                       # number of WriteReq hits
system.cpu.dcache.WriteReq_hits::total          35323                       # number of WriteReq hits
system.cpu.dcache.WriteReq_misses::.cpu.data          114                       # number of WriteReq misses
system.cpu.dcache.WriteReq_misses::total          114                       # number of WriteReq misses
system.cpu.dcache.WriteReq_miss_latency::.cpu.data      7124500                       # number of WriteReq miss cycles
system.cpu.dcache.WriteReq_miss_latency::total      7124500                       # number of WriteReq miss cycles
system.cpu.dcache.WriteReq_accesses::.cpu.data        35437                       # number of WriteReq accesses(hits+misses)
system.cpu.dcache.WriteReq_accesses::total        35437                       # number of WriteReq accesses(hits+misses)
system.cpu.dcache.WriteReq_miss_rate::.cpu.data     0.003217                       # miss rate for WriteReq accesses
system.cpu.dcache.WriteReq_miss_rate::total     0.003217                       # miss rate for WriteReq accesses
system.cpu.dcache.WriteReq_avg_miss_latency::.cpu.data 62495.614035                       # average WriteReq miss latency
system.cpu.dcache.WriteReq_avg_miss_latency::total 62495.614035                       # average WriteReq miss latency
system.cpu.dcache.WriteReq_mshr_hits::.cpu.data           46                       # number of WriteReq MSHR hits
system.cpu.dcache.WriteReq_mshr_hits::total           46                       # number of WriteReq MSHR hits
system.cpu.dcache.WriteReq_mshr_misses::.cpu.data           68                       # number of WriteReq MSHR misses
system.cpu.dcache.WriteReq_mshr_misses::total           68                       # number of WriteReq MSHR misses
system.cpu.dcache.WriteReq_mshr_miss_latency::.cpu.data      4123000                       # number of WriteReq MSHR miss cycles
system.cpu.dcache.WriteReq_mshr_miss_latency::total      4123000                       # number of WriteReq MSHR miss cycles
system.cpu.dcache.WriteReq_mshr_miss_rate::.cpu.data     0.001919                       # mshr miss rate for WriteReq accesses
system.cpu.dcache.WriteReq_mshr_miss_rate::total     0.001919                       # mshr miss rate for WriteReq accesses
system.cpu.dcache.WriteReq_avg_mshr_miss_latency::.cpu.data 60632.352941                       # average WriteReq mshr miss latency
system.cpu.dcache.WriteReq_avg_mshr_miss_latency::total 60632.352941                       # average WriteReq mshr miss latency
system.cpu.dcache.SoftPFReq_hits::.cpu.data           20                       # number of SoftPFReq hits
system.cpu.dcache.SoftPFReq_hits::total            20                       # number of SoftPFReq hits
system.cpu.dcache.SoftPFReq_misses::.cpu.data            8                       # number of SoftPFReq misses
system.cpu.dcache.SoftPFReq_misses::total            8                       # number of SoftPFReq misses
system.cpu.dcache.SoftPFReq_accesses::.cpu.data           28                       # number of SoftPFReq accesses(hits+misses)
system.cpu.dcache.SoftPFReq_accesses::total           28                       # number of SoftPFReq accesses(hits+misses)
system.cpu.dcache.SoftPFReq_miss_rate::.cpu.data     0.285714                       # miss rate for SoftPFReq accesses
system.cpu.dcache.SoftPFReq_miss_rate::total     0.285714                       # miss rate for SoftPFReq accesses
system.cpu.dcache.SoftPFReq_mshr_misses::.cpu.data            6                       # number of SoftPFReq MSHR misses
system.cpu.dcache.SoftPFReq_mshr_misses::total            6                       # number of SoftPFReq MSHR misses
system.cpu.dcache.SoftPFReq_mshr_miss_latency::.cpu.data       343000                       # number of SoftPFReq MSHR miss cycles
system.cpu.dcache.SoftPFReq_mshr_miss_latency::total       343000                       # number of SoftPFReq MSHR miss cycles
system.cpu.dcache.SoftPFReq_mshr_miss_rate::.cpu.data     0.214286                       # mshr miss rate for SoftPFReq accesses
system.cpu.dcache.SoftPFReq_mshr_miss_rate::total     0.214286                       # mshr miss rate for SoftPFReq accesses
system.cpu.dcache.SoftPFReq_avg_mshr_miss_latency::.cpu.data 57166.666667                       # average SoftPFReq mshr miss latency
system.cpu.dcache.SoftPFReq_avg_mshr_miss_latency::total 57166.666667                       # average SoftPFReq mshr miss latency
system.cpu.dcache.LoadLockedReq_hits::.cpu.data          528                       # number of LoadLockedReq hits
system.cpu.dcache.LoadLockedReq_hits::total          528                       # number of LoadLockedReq hits
system.cpu.dcache.LoadLockedReq_accesses::.cpu.data          528                       # number of LoadLockedReq accesses(hits+misses)
system.cpu.dcache.LoadLockedReq_accesses::total          528                       # number of LoadLockedReq accesses(hits+misses)
system.cpu.dcache.StoreCondReq_hits::.cpu.data          528                       # number of StoreCondReq hits
system.cpu.dcache.StoreCondReq_hits::total          528                       # number of StoreCondReq hits
system.cpu.dcache.StoreCondReq_accesses::.cpu.data          528                       # number of StoreCondReq accesses(hits+misses)
system.cpu.dcache.StoreCondReq_accesses::total          528                       # number of StoreCondReq accesses(hits+misses)
system.cpu.dcache.tags.pwrStateResidencyTicks::UNDEFINED    224536000                       # Cumulative time (in ticks) in various power states
system.cpu.dcache.tags.tagsinuse           154.460042                       # Cycle average of tags in use
system.cpu.dcache.tags.total_refs               77454                       # Total number of references to valid blocks.
system.cpu.dcache.tags.sampled_refs               181                       # Sample count of references to valid blocks.
system.cpu.dcache.tags.avg_refs            427.922652                       # Average number of references to valid blocks.
system.cpu.dcache.tags.warmup_cycle            145000                       # Cycle when the warmup percentage was hit.
system.cpu.dcache.tags.occ_blocks::.cpu.data   154.460042                       # Average occupied blocks per requestor
system.cpu.dcache.tags.occ_percent::.cpu.data     0.150840                       # Average percentage of cache occupancy
system.cpu.dcache.tags.occ_percent::total     0.150840                       # Average percentage of cache occupancy
system.cpu.dcache.tags.occ_task_id_blocks::1024          180                       # Occupied blocks per task id
system.cpu.dcache.tags.age_task_id_blocks_1024::0           16                       # Occupied blocks per task id
system.cpu.dcache.tags.age_task_id_blocks_1024::2          164                       # Occupied blocks per task id
system.cpu.dcache.tags.occ_task_id_percent::1024     0.175781                       # Percentage of cache occupancy per task id
system.cpu.dcache.tags.tag_accesses            155191                       # Number of tag accesses
system.cpu.dcache.tags.data_accesses           155191                       # Number of data accesses
system.cpu.itb.walker.pwrStateResidencyTicks::UNDEFINED    224536000                       # Cumulative time (in ticks) in various power states
system.cpu.itb.stage2_mmu.stage2_tlb.walker.pwrStateResidencyTicks::UNDEFINED    224536000                       # Cumulative time (in ticks) in various power states

---------- End Simulation Statistics   ----------
